# CMAKE generated file: DO NOT EDIT!
# Generated by "MinGW Makefiles" Generator, CMake Version 3.16

# Delete rule output on recipe failure.
.DELETE_ON_ERROR:


#=============================================================================
# Special targets provided by cmake.

# Disable implicit rules so canonical targets will work.
.SUFFIXES:


# Remove some rules from gmake that .SUFFIXES does not remove.
SUFFIXES =

.SUFFIXES: .hpux_make_needs_suffix_list


# Suppress display of executed commands.
$(VERBOSE).SILENT:


# A target that is always out of date.
cmake_force:

.PHONY : cmake_force

#=============================================================================
# Set environment variables for the build.

SHELL = cmd.exe

# The CMake executable.
CMAKE_COMMAND = "C:\Program Files\CMake\bin\cmake.exe"

# The command to remove a file.
RM = "C:\Program Files\CMake\bin\cmake.exe" -E remove -f

# Escaping for special characters.
EQUALS = =

# The top-level source directory on which CMake was run.
CMAKE_SOURCE_DIR = C:\Users\valentinc\Workspace\OpenFAST\SuperController\SC_MPIClient

# The top-level build directory on which CMake was run.
CMAKE_BINARY_DIR = C:\Users\valentinc\Workspace\OpenFAST\SuperController\SC_MPIClient\custom-build

# Include any dependencies generated for this target.
include src/CMakeFiles/SCClient_ROSCO.dir/depend.make

# Include the progress variables for this target.
include src/CMakeFiles/SCClient_ROSCO.dir/progress.make

# Include the compile flags for this target's objects.
include src/CMakeFiles/SCClient_ROSCO.dir/flags.make

src/CMakeFiles/SCClient_ROSCO.dir/SCClientSubs.f90.obj: src/CMakeFiles/SCClient_ROSCO.dir/flags.make
src/CMakeFiles/SCClient_ROSCO.dir/SCClientSubs.f90.obj: src/CMakeFiles/SCClient_ROSCO.dir/includes_Fortran.rsp
src/CMakeFiles/SCClient_ROSCO.dir/SCClientSubs.f90.obj: ../src/SCClientSubs.f90
	@$(CMAKE_COMMAND) -E cmake_echo_color --switch=$(COLOR) --green --progress-dir=C:\Users\valentinc\Workspace\OpenFAST\SuperController\SC_MPIClient\custom-build\CMakeFiles --progress-num=$(CMAKE_PROGRESS_1) "Building Fortran object src/CMakeFiles/SCClient_ROSCO.dir/SCClientSubs.f90.obj"
	cd /d C:\Users\valentinc\Workspace\OpenFAST\SuperController\SC_MPIClient\custom-build\src && C:\Users\valentinc\msys2\mingw64\bin\gfortran.exe $(Fortran_DEFINES) $(Fortran_INCLUDES) $(Fortran_FLAGS) -c C:\Users\valentinc\Workspace\OpenFAST\SuperController\SC_MPIClient\src\SCClientSubs.f90 -o CMakeFiles\SCClient_ROSCO.dir\SCClientSubs.f90.obj

src/CMakeFiles/SCClient_ROSCO.dir/SCClientSubs.f90.i: cmake_force
	@$(CMAKE_COMMAND) -E cmake_echo_color --switch=$(COLOR) --green "Preprocessing Fortran source to CMakeFiles/SCClient_ROSCO.dir/SCClientSubs.f90.i"
	cd /d C:\Users\valentinc\Workspace\OpenFAST\SuperController\SC_MPIClient\custom-build\src && C:\Users\valentinc\msys2\mingw64\bin\gfortran.exe $(Fortran_DEFINES) $(Fortran_INCLUDES) $(Fortran_FLAGS) -E C:\Users\valentinc\Workspace\OpenFAST\SuperController\SC_MPIClient\src\SCClientSubs.f90 > CMakeFiles\SCClient_ROSCO.dir\SCClientSubs.f90.i

src/CMakeFiles/SCClient_ROSCO.dir/SCClientSubs.f90.s: cmake_force
	@$(CMAKE_COMMAND) -E cmake_echo_color --switch=$(COLOR) --green "Compiling Fortran source to assembly CMakeFiles/SCClient_ROSCO.dir/SCClientSubs.f90.s"
	cd /d C:\Users\valentinc\Workspace\OpenFAST\SuperController\SC_MPIClient\custom-build\src && C:\Users\valentinc\msys2\mingw64\bin\gfortran.exe $(Fortran_DEFINES) $(Fortran_INCLUDES) $(Fortran_FLAGS) -S C:\Users\valentinc\Workspace\OpenFAST\SuperController\SC_MPIClient\src\SCClientSubs.f90 -o CMakeFiles\SCClient_ROSCO.dir\SCClientSubs.f90.s

src/CMakeFiles/SCClient_ROSCO.dir/SCClient_DISCON.f90.obj: src/CMakeFiles/SCClient_ROSCO.dir/flags.make
src/CMakeFiles/SCClient_ROSCO.dir/SCClient_DISCON.f90.obj: src/CMakeFiles/SCClient_ROSCO.dir/includes_Fortran.rsp
src/CMakeFiles/SCClient_ROSCO.dir/SCClient_DISCON.f90.obj: ../src/SCClient_DISCON.f90
	@$(CMAKE_COMMAND) -E cmake_echo_color --switch=$(COLOR) --green --progress-dir=C:\Users\valentinc\Workspace\OpenFAST\SuperController\SC_MPIClient\custom-build\CMakeFiles --progress-num=$(CMAKE_PROGRESS_2) "Building Fortran object src/CMakeFiles/SCClient_ROSCO.dir/SCClient_DISCON.f90.obj"
	cd /d C:\Users\valentinc\Workspace\OpenFAST\SuperController\SC_MPIClient\custom-build\src && C:\Users\valentinc\msys2\mingw64\bin\gfortran.exe $(Fortran_DEFINES) $(Fortran_INCLUDES) $(Fortran_FLAGS) -c C:\Users\valentinc\Workspace\OpenFAST\SuperController\SC_MPIClient\src\SCClient_DISCON.f90 -o CMakeFiles\SCClient_ROSCO.dir\SCClient_DISCON.f90.obj

src/CMakeFiles/SCClient_ROSCO.dir/SCClient_DISCON.f90.i: cmake_force
	@$(CMAKE_COMMAND) -E cmake_echo_color --switch=$(COLOR) --green "Preprocessing Fortran source to CMakeFiles/SCClient_ROSCO.dir/SCClient_DISCON.f90.i"
	cd /d C:\Users\valentinc\Workspace\OpenFAST\SuperController\SC_MPIClient\custom-build\src && C:\Users\valentinc\msys2\mingw64\bin\gfortran.exe $(Fortran_DEFINES) $(Fortran_INCLUDES) $(Fortran_FLAGS) -E C:\Users\valentinc\Workspace\OpenFAST\SuperController\SC_MPIClient\src\SCClient_DISCON.f90 > CMakeFiles\SCClient_ROSCO.dir\SCClient_DISCON.f90.i

src/CMakeFiles/SCClient_ROSCO.dir/SCClient_DISCON.f90.s: cmake_force
	@$(CMAKE_COMMAND) -E cmake_echo_color --switch=$(COLOR) --green "Compiling Fortran source to assembly CMakeFiles/SCClient_ROSCO.dir/SCClient_DISCON.f90.s"
	cd /d C:\Users\valentinc\Workspace\OpenFAST\SuperController\SC_MPIClient\custom-build\src && C:\Users\valentinc\msys2\mingw64\bin\gfortran.exe $(Fortran_DEFINES) $(Fortran_INCLUDES) $(Fortran_FLAGS) -S C:\Users\valentinc\Workspace\OpenFAST\SuperController\SC_MPIClient\src\SCClient_DISCON.f90 -o CMakeFiles\SCClient_ROSCO.dir\SCClient_DISCON.f90.s

# Object files for target SCClient_ROSCO
SCClient_ROSCO_OBJECTS = \
"CMakeFiles/SCClient_ROSCO.dir/SCClientSubs.f90.obj" \
"CMakeFiles/SCClient_ROSCO.dir/SCClient_DISCON.f90.obj"

# External object files for target SCClient_ROSCO
SCClient_ROSCO_EXTERNAL_OBJECTS =

src/SCClient_ROSCO_64.dll: src/CMakeFiles/SCClient_ROSCO.dir/SCClientSubs.f90.obj
src/SCClient_ROSCO_64.dll: src/CMakeFiles/SCClient_ROSCO.dir/SCClient_DISCON.f90.obj
src/SCClient_ROSCO_64.dll: src/CMakeFiles/SCClient_ROSCO.dir/build.make
src/SCClient_ROSCO_64.dll: src/libmsmpi.a
src/SCClient_ROSCO_64.dll: src/libROSCO.a
src/SCClient_ROSCO_64.dll: src/CMakeFiles/SCClient_ROSCO.dir/linklibs.rsp
src/SCClient_ROSCO_64.dll: src/CMakeFiles/SCClient_ROSCO.dir/objects1.rsp
src/SCClient_ROSCO_64.dll: src/CMakeFiles/SCClient_ROSCO.dir/link.txt
	@$(CMAKE_COMMAND) -E cmake_echo_color --switch=$(COLOR) --green --bold --progress-dir=C:\Users\valentinc\Workspace\OpenFAST\SuperController\SC_MPIClient\custom-build\CMakeFiles --progress-num=$(CMAKE_PROGRESS_3) "Linking Fortran shared library SCClient_ROSCO_64.dll"
	cd /d C:\Users\valentinc\Workspace\OpenFAST\SuperController\SC_MPIClient\custom-build\src && $(CMAKE_COMMAND) -E cmake_link_script CMakeFiles\SCClient_ROSCO.dir\link.txt --verbose=$(VERBOSE)

# Rule to build all files generated by this target.
src/CMakeFiles/SCClient_ROSCO.dir/build: src/SCClient_ROSCO_64.dll

.PHONY : src/CMakeFiles/SCClient_ROSCO.dir/build

src/CMakeFiles/SCClient_ROSCO.dir/clean:
	cd /d C:\Users\valentinc\Workspace\OpenFAST\SuperController\SC_MPIClient\custom-build\src && $(CMAKE_COMMAND) -P CMakeFiles\SCClient_ROSCO.dir\cmake_clean.cmake
.PHONY : src/CMakeFiles/SCClient_ROSCO.dir/clean

src/CMakeFiles/SCClient_ROSCO.dir/depend:
	$(CMAKE_COMMAND) -E cmake_depends "MinGW Makefiles" C:\Users\valentinc\Workspace\OpenFAST\SuperController\SC_MPIClient C:\Users\valentinc\Workspace\OpenFAST\SuperController\SC_MPIClient\src C:\Users\valentinc\Workspace\OpenFAST\SuperController\SC_MPIClient\custom-build C:\Users\valentinc\Workspace\OpenFAST\SuperController\SC_MPIClient\custom-build\src C:\Users\valentinc\Workspace\OpenFAST\SuperController\SC_MPIClient\custom-build\src\CMakeFiles\SCClient_ROSCO.dir\DependInfo.cmake --color=$(COLOR)
.PHONY : src/CMakeFiles/SCClient_ROSCO.dir/depend

