C:/Users/valentinc/Workspace/OpenFAST/SuperController/SC_MPIClient/custom-build/CMakeFiles/edit_cache.dir
C:/Users/valentinc/Workspace/OpenFAST/SuperController/SC_MPIClient/custom-build/CMakeFiles/rebuild_cache.dir
C:/Users/valentinc/Workspace/OpenFAST/SuperController/SC_MPIClient/custom-build/src/CMakeFiles/rebuild_cache.dir
C:/Users/valentinc/Workspace/OpenFAST/SuperController/SC_MPIClient/custom-build/src/CMakeFiles/SCClient_DTUWEC.dir
C:/Users/valentinc/Workspace/OpenFAST/SuperController/SC_MPIClient/custom-build/src/CMakeFiles/edit_cache.dir
