# CMAKE generated file: DO NOT EDIT!
# Generated by "MinGW Makefiles" Generator, CMake Version 3.16

# Default target executed when no arguments are given to make.
default_target: all

.PHONY : default_target

# Allow only one "make -f Makefile2" at a time, but pass parallelism.
.NOTPARALLEL:


#=============================================================================
# Special targets provided by cmake.

# Disable implicit rules so canonical targets will work.
.SUFFIXES:


# Remove some rules from gmake that .SUFFIXES does not remove.
SUFFIXES =

.SUFFIXES: .hpux_make_needs_suffix_list


# Suppress display of executed commands.
$(VERBOSE).SILENT:


# A target that is always out of date.
cmake_force:

.PHONY : cmake_force

#=============================================================================
# Set environment variables for the build.

SHELL = cmd.exe

# The CMake executable.
CMAKE_COMMAND = "C:\Program Files\CMake\bin\cmake.exe"

# The command to remove a file.
RM = "C:\Program Files\CMake\bin\cmake.exe" -E remove -f

# Escaping for special characters.
EQUALS = =

# The top-level source directory on which CMake was run.
CMAKE_SOURCE_DIR = C:\Users\valentinc\Workspace\OpenFAST\SuperController\SC_MPIClient

# The top-level build directory on which CMake was run.
CMAKE_BINARY_DIR = C:\Users\valentinc\Workspace\OpenFAST\SuperController\SC_MPIClient\custom-build

#=============================================================================
# Targets provided globally by CMake.

# Special rule for the target rebuild_cache
rebuild_cache:
	@$(CMAKE_COMMAND) -E cmake_echo_color --switch=$(COLOR) --cyan "Running CMake to regenerate build system..."
	"C:\Program Files\CMake\bin\cmake.exe" -S$(CMAKE_SOURCE_DIR) -B$(CMAKE_BINARY_DIR)
.PHONY : rebuild_cache

# Special rule for the target rebuild_cache
rebuild_cache/fast: rebuild_cache

.PHONY : rebuild_cache/fast

# Special rule for the target edit_cache
edit_cache:
	@$(CMAKE_COMMAND) -E cmake_echo_color --switch=$(COLOR) --cyan "Running CMake cache editor..."
	"C:\Program Files\CMake\bin\cmake-gui.exe" -S$(CMAKE_SOURCE_DIR) -B$(CMAKE_BINARY_DIR)
.PHONY : edit_cache

# Special rule for the target edit_cache
edit_cache/fast: edit_cache

.PHONY : edit_cache/fast

# The main all target
all: cmake_check_build_system
	cd /d C:\Users\valentinc\Workspace\OpenFAST\SuperController\SC_MPIClient\custom-build && $(CMAKE_COMMAND) -E cmake_progress_start C:\Users\valentinc\Workspace\OpenFAST\SuperController\SC_MPIClient\custom-build\CMakeFiles C:\Users\valentinc\Workspace\OpenFAST\SuperController\SC_MPIClient\custom-build\src\CMakeFiles\progress.marks
	cd /d C:\Users\valentinc\Workspace\OpenFAST\SuperController\SC_MPIClient\custom-build && $(MAKE) -f CMakeFiles\Makefile2 src/all
	$(CMAKE_COMMAND) -E cmake_progress_start C:\Users\valentinc\Workspace\OpenFAST\SuperController\SC_MPIClient\custom-build\CMakeFiles 0
.PHONY : all

# The main clean target
clean:
	cd /d C:\Users\valentinc\Workspace\OpenFAST\SuperController\SC_MPIClient\custom-build && $(MAKE) -f CMakeFiles\Makefile2 src/clean
.PHONY : clean

# The main clean target
clean/fast: clean

.PHONY : clean/fast

# Prepare targets for installation.
preinstall: all
	cd /d C:\Users\valentinc\Workspace\OpenFAST\SuperController\SC_MPIClient\custom-build && $(MAKE) -f CMakeFiles\Makefile2 src/preinstall
.PHONY : preinstall

# Prepare targets for installation.
preinstall/fast:
	cd /d C:\Users\valentinc\Workspace\OpenFAST\SuperController\SC_MPIClient\custom-build && $(MAKE) -f CMakeFiles\Makefile2 src/preinstall
.PHONY : preinstall/fast

# clear depends
depend:
	cd /d C:\Users\valentinc\Workspace\OpenFAST\SuperController\SC_MPIClient\custom-build && $(CMAKE_COMMAND) -S$(CMAKE_SOURCE_DIR) -B$(CMAKE_BINARY_DIR) --check-build-system CMakeFiles\Makefile.cmake 1
.PHONY : depend

# Convenience name for target.
src/CMakeFiles/SCClient_DTUWEC.dir/rule:
	cd /d C:\Users\valentinc\Workspace\OpenFAST\SuperController\SC_MPIClient\custom-build && $(MAKE) -f CMakeFiles\Makefile2 src/CMakeFiles/SCClient_DTUWEC.dir/rule
.PHONY : src/CMakeFiles/SCClient_DTUWEC.dir/rule

# Convenience name for target.
SCClient_DTUWEC: src/CMakeFiles/SCClient_DTUWEC.dir/rule

.PHONY : SCClient_DTUWEC

# fast build rule for target.
SCClient_DTUWEC/fast:
	cd /d C:\Users\valentinc\Workspace\OpenFAST\SuperController\SC_MPIClient\custom-build && $(MAKE) -f src\CMakeFiles\SCClient_DTUWEC.dir\build.make src/CMakeFiles/SCClient_DTUWEC.dir/build
.PHONY : SCClient_DTUWEC/fast

SCClientSubs.obj: SCClientSubs.f90.obj

.PHONY : SCClientSubs.obj

# target to build an object file
SCClientSubs.f90.obj:
	cd /d C:\Users\valentinc\Workspace\OpenFAST\SuperController\SC_MPIClient\custom-build && $(MAKE) -f src\CMakeFiles\SCClient_DTUWEC.dir\build.make src/CMakeFiles/SCClient_DTUWEC.dir/SCClientSubs.f90.obj
.PHONY : SCClientSubs.f90.obj

SCClientSubs.i: SCClientSubs.f90.i

.PHONY : SCClientSubs.i

# target to preprocess a source file
SCClientSubs.f90.i:
	cd /d C:\Users\valentinc\Workspace\OpenFAST\SuperController\SC_MPIClient\custom-build && $(MAKE) -f src\CMakeFiles\SCClient_DTUWEC.dir\build.make src/CMakeFiles/SCClient_DTUWEC.dir/SCClientSubs.f90.i
.PHONY : SCClientSubs.f90.i

SCClientSubs.s: SCClientSubs.f90.s

.PHONY : SCClientSubs.s

# target to generate assembly for a file
SCClientSubs.f90.s:
	cd /d C:\Users\valentinc\Workspace\OpenFAST\SuperController\SC_MPIClient\custom-build && $(MAKE) -f src\CMakeFiles\SCClient_DTUWEC.dir\build.make src/CMakeFiles/SCClient_DTUWEC.dir/SCClientSubs.f90.s
.PHONY : SCClientSubs.f90.s

SCClient_DISCON.obj: SCClient_DISCON.f90.obj

.PHONY : SCClient_DISCON.obj

# target to build an object file
SCClient_DISCON.f90.obj:
	cd /d C:\Users\valentinc\Workspace\OpenFAST\SuperController\SC_MPIClient\custom-build && $(MAKE) -f src\CMakeFiles\SCClient_DTUWEC.dir\build.make src/CMakeFiles/SCClient_DTUWEC.dir/SCClient_DISCON.f90.obj
.PHONY : SCClient_DISCON.f90.obj

SCClient_DISCON.i: SCClient_DISCON.f90.i

.PHONY : SCClient_DISCON.i

# target to preprocess a source file
SCClient_DISCON.f90.i:
	cd /d C:\Users\valentinc\Workspace\OpenFAST\SuperController\SC_MPIClient\custom-build && $(MAKE) -f src\CMakeFiles\SCClient_DTUWEC.dir\build.make src/CMakeFiles/SCClient_DTUWEC.dir/SCClient_DISCON.f90.i
.PHONY : SCClient_DISCON.f90.i

SCClient_DISCON.s: SCClient_DISCON.f90.s

.PHONY : SCClient_DISCON.s

# target to generate assembly for a file
SCClient_DISCON.f90.s:
	cd /d C:\Users\valentinc\Workspace\OpenFAST\SuperController\SC_MPIClient\custom-build && $(MAKE) -f src\CMakeFiles\SCClient_DTUWEC.dir\build.make src/CMakeFiles/SCClient_DTUWEC.dir/SCClient_DISCON.f90.s
.PHONY : SCClient_DISCON.f90.s

YawAngleFromFile.obj: YawAngleFromFile.f90.obj

.PHONY : YawAngleFromFile.obj

# target to build an object file
YawAngleFromFile.f90.obj:
	cd /d C:\Users\valentinc\Workspace\OpenFAST\SuperController\SC_MPIClient\custom-build && $(MAKE) -f src\CMakeFiles\SCClient_DTUWEC.dir\build.make src/CMakeFiles/SCClient_DTUWEC.dir/YawAngleFromFile.f90.obj
.PHONY : YawAngleFromFile.f90.obj

YawAngleFromFile.i: YawAngleFromFile.f90.i

.PHONY : YawAngleFromFile.i

# target to preprocess a source file
YawAngleFromFile.f90.i:
	cd /d C:\Users\valentinc\Workspace\OpenFAST\SuperController\SC_MPIClient\custom-build && $(MAKE) -f src\CMakeFiles\SCClient_DTUWEC.dir\build.make src/CMakeFiles/SCClient_DTUWEC.dir/YawAngleFromFile.f90.i
.PHONY : YawAngleFromFile.f90.i

YawAngleFromFile.s: YawAngleFromFile.f90.s

.PHONY : YawAngleFromFile.s

# target to generate assembly for a file
YawAngleFromFile.f90.s:
	cd /d C:\Users\valentinc\Workspace\OpenFAST\SuperController\SC_MPIClient\custom-build && $(MAKE) -f src\CMakeFiles\SCClient_DTUWEC.dir\build.make src/CMakeFiles/SCClient_DTUWEC.dir/YawAngleFromFile.f90.s
.PHONY : YawAngleFromFile.f90.s

# Help Target
help:
	@echo The following are some of the valid targets for this Makefile:
	@echo ... all (the default if no target is provided)
	@echo ... clean
	@echo ... depend
	@echo ... rebuild_cache
	@echo ... SCClient_DTUWEC
	@echo ... edit_cache
	@echo ... SCClientSubs.obj
	@echo ... SCClientSubs.i
	@echo ... SCClientSubs.s
	@echo ... SCClient_DISCON.obj
	@echo ... SCClient_DISCON.i
	@echo ... SCClient_DISCON.s
	@echo ... YawAngleFromFile.obj
	@echo ... YawAngleFromFile.i
	@echo ... YawAngleFromFile.s
.PHONY : help



#=============================================================================
# Special targets to cleanup operation of make.

# Special rule to run CMake to check the build system integrity.
# No rule that depends on this can have commands that come from listfiles
# because they might be regenerated.
cmake_check_build_system:
	cd /d C:\Users\valentinc\Workspace\OpenFAST\SuperController\SC_MPIClient\custom-build && $(CMAKE_COMMAND) -S$(CMAKE_SOURCE_DIR) -B$(CMAKE_BINARY_DIR) --check-build-system CMakeFiles\Makefile.cmake 0
.PHONY : cmake_check_build_system

