# CMAKE generated file: DO NOT EDIT!
# Generated by "MinGW Makefiles" Generator, CMake Version 3.16

src/CMakeFiles/SCClient_Standalone.dir/SCClientSubs.f90.obj
 C:/Users/valentinc/Workspace/OpenFAST/SuperController/SC_MPIClient/src/SCClientSubs.f90
src/CMakeFiles/SCClient_Standalone.dir/SCClient_DISCON.f90.obj
 C:/Users/valentinc/Workspace/OpenFAST/SuperController/SC_MPIClient/src/SCClient_DISCON.f90
