-IC:/Users/valentinc/Workspace/OpenFAST/SuperController/SC_MPIClient/src -IC:/Users/valentinc/Workspace/OpenFAST/SuperController/SC_MPIClient/custom-build/src -IC:/Users/valentinc/Workspace/OpenFAST/SuperController/SC_MPIClient/utils/portability 
